#Title
An-Gy-Hal-Hal

#----------------------------------------------------------------------------
#DEFINITION OF THE GEOCHEMICAL SYSTEM
#PRIMARY AQUEOUS SPECIES
     h2o       0
      h+       0
     na+       0
     cl-       0
   hco3-       0
    ca+2       0
   so4-2       0
    mg+2       0
  H4SiO4       0
    Al+3       0
    Fe+2       0
     HS-       0
      K+       0
'*'

# AQUEOUS KINETICS
'*'

# AQUEOUS COMPLEXES
'*'

#MINERALS
            Quartz(alpha)         1         1         0         0
          1.0233e-14    0  1.000  1.000 87.7    0    0    0
               Microcline         1         3         0         0
          3.8905e-13    2  1.000  1.000 38.0    0    0    0
                   2
                    8.7096e-11 51.7    1        h+     0.500
                    6.3096e-22 94.1    1        h+    -0.823
          3.8905e-13    0  1.000  1.000 38.0    0    0    0     1e-06    0
  0.0  0.0  0.0
              Albite(low)         1         3         0         0
          1.4454e-13    2  1.000  1.000 69.8    0    0    0
                   1
                    2.1380e-11 65.0    1        h+     0.457
          1.4454e-13    0  1.000  1.000 69.8    0    0    0     1e-06    0
  0.0  0.0  0.0
       Muscovite(ordered)         1         3         0         0
          2.8184e-13    2  1.000  1.000 22.0    0    0    0
                   2
                    1.4125e-12 22.0    1        h+     0.370
                    2.8184e-15 22.0    1        h+    -0.220
          2.8184e-13    0  1.000  1.000 22.0    0    0    0     1e-06    0
  0.0  0.0  0.0
          Chlorite(Cca-2)         1         3         0         0
          3.0200e-13    2  1.000  0.380 88.0    0    0    0
                   1
                    7.7624e-12 88.0    1        h+     0.500
          3.0200e-13    0  1.000  0.380 88.0    0    0    0     1e-06    0
  0.0  0.0  0.0
                 Dolomite         1         3         0         0
          2.9512e-08    2  1.000  1.000 52.2    0    0    0
                   1
                    6.4565e-04 36.1    1        h+     0.500
          2.9512e-08    0  1.000  1.000 52.2    0    0    0     1e-05    0
  0.0  0.0  0.0
                  Calcite         1         3         0         0
          1.5488e-06    2  1.000  1.000 23.5    0    0    0
                   1
                    5.0119e-01 14.4    1        h+     1.000
          1.5488e-06    0  1.000  1.000 23.5    0    0    0     1e-05    0
  0.0  0.0  0.0
'*'

# GASES
co2(g)   0
'*'

# SURFACE COMPLEXES
'*'

# SPECIES WITH Kd AND DECAY
'*'

# EXCHANGEABLE CATIONS
'*'

#----------------------------------------------------------------------------
# # INITIAL AND BOUNDARY WATER TYPES
1    0
# Index  Speciation T(C)  P(bar)  
1   170.000        805.900
#        icon       NRguess(molal)  ctot (molal)   
h2o         1     1.0000e+00     1.0000e+00         *      0.00
h+         1     5.9661e-06     1.4626e-02         *      0.00
na+         1     2.2792e+00     2.2797e+00         *      0.00
cl-         1     3.5408e+00     4.0935e+00         *      0.00
hco3-         1     1.2372e-03     1.7043e-02         *      0.00
ca+2         1     4.1945e-01     5.6013e-01         *      0.00
so4-2         1     4.8191e-05     9.0942e-05         *      0.00
mg+2         1     6.1888e-02     7.8957e-02         *      0.00
H4SiO4         1     2.9275e-03     2.9292e-03         *      0.00
Al+3         1     1.6208e-12     5.0869e-08         *      0.00
Fe+2         1     9.8531e-03     1.1307e-02         *      0.00
HS-         1     7.8240e-08     4.5662e-07         *      0.00
K+         1     1.7547e-01     5.2730e-01         *      0.00
'*'

#----------------------------------------------------------------------------
# INITIAL MINERAL ZONES
1
1
# mineral         vol.frac
Quartz(alpha)    0.3690    1
   0.0e+00    157.30    0
Microcline    0.0351    1
   0.0e+00     12.90    0
Albite(low)    0.0815    1
   0.0e+00      9.10    0
Muscovite(ordered)    0.2388    1
   0.0e+00      9.10    0
Chlorite(Cca-2)    0.1236    1
   0.0e+00      9.10    0
Dolomite    0.0730    1
   0.0e+00     12.00    0
Calcite    0.0540    1
   0.0e+00    260.00    0
'*'

#----------------------------------------------------------------------------
# INITIAL and Injection gas ZONES 
1    0
1
#gas      partial pressure (bar) !if zero or blank, equil with solution   
co2(g)           0.00
'*'

#----------------------------------------------------------------------------
# Permeability-Porosity Zones
1
1
# Perm law  a-parameter  b-parameter
   1      0.000e+00      0.000e+00
'*'

# INITIAL SURFACE ADSORPTION ZONES
'*'

# INITIAL LINEAR EQUILIBRIUM Kd ZONE
'*'

# INITIAL ZONES OF CATION EXCHANGE
'*'

#end
